 11
    i = 0 
N      0.00000      0.00000      0.00000
N      1.25000      2.16506      0.00000
N      2.50000      0.00000      0.00000
N      3.75000      2.16506      0.00000
B      0.00000      1.44336      0.00000
B      1.25000      3.60842      0.00000
B      2.50000      1.44336      0.00000
B      3.75000      3.60842      0.00000
  O      2.69654700      0.00000000     +3.13950200
  H      3.23017500      0.12861000     +3.92778900
  H      2.20238000      0.84251400     +3.02595300
