 21
    i = 0 
N    0.00000     0.00000      0.00000    
N    0.00000     1.25000      2.16506    
N    0.00000     2.50000      4.33012    
N    0.00000     2.50000      0.00000    
N    0.00000     3.75000      2.16506    
N    0.00000     5.00000      4.33012    
N    0.00000     5.00000      0.00000    
N    0.00000     6.25000      2.16506    
N    0.00000     7.50000      4.33012    
B    0.00000     0.00000      1.44336    
B    0.00000     1.25000      3.60842    
B    0.00000     2.50000      5.77348    
B    0.00000     2.50000      1.44336    
B    0.00000     3.75000      3.60842    
B    0.00000     5.00000      5.77348    
B    0.00000     5.00000      1.44336    
B    0.00000     6.25000      3.60842    
B    0.00000     7.50000      5.77348    
  O     +3.13950200   2.69654700      0.00000000    
  H     +3.92778900   3.23017500      0.12861000    
  H     +3.02595300   2.20238000      0.84251400    
