200
four_mols
N         10.35910       22.83690       27.39350
C         11.48770       23.00980       27.15190
C         12.87640       23.19730       26.88790
C         13.62270       22.17350       26.19510
C         12.97430       20.98150       25.76310
H         11.91110       20.85330       25.97160
C         13.69590       19.98490       25.16510
H         13.23050       19.02770       24.92540
C         15.05740       20.18570       24.80710
C         15.80040       19.12170       24.21610
H         15.30260       18.16500       24.05810
C         17.12950       19.28050       23.93370
H         17.73920       18.44220       23.59330
C         17.73480       20.56730       24.02590
C         19.12470       20.73190       23.75810
H         19.71630       19.84790       23.51560
C         19.71580       21.96460       23.86170
H         20.79480       22.07870       23.75720
C         18.91070       23.12870       24.01800
C         19.50970       24.44310       24.05870
C         20.93050       24.56590       24.13290
N         22.09090       24.65760       24.22880
C         18.72780       25.57630       24.08340
H         19.19400       26.55950       24.14790
C         17.31640       25.48320       23.95880
C         16.53020       26.65500       23.81900
H         17.02740       27.62460       23.87210
C         15.17140       26.57100       23.58700
H         14.57550       27.47550       23.47430
C         14.56830       25.30370       23.45120
H         13.50850       25.22970       23.20760
C         15.31000       24.14670       23.61430
H         14.82640       23.18170       23.48610
C         16.68950       24.19580       23.92550
C         17.49760       23.01030       24.12850
C         16.95160       21.70010       24.40430
C         15.68160       21.44580       25.05840
C         15.01410       22.35890       25.96240
C         15.68750       23.41880       26.69140
C         17.08030       23.43460       26.94050
H         17.68750       22.58850       26.63240
C         17.68290       24.49710       27.59330
H         18.75770       24.47360       27.77320
C         16.91960       25.59870       28.03470
H         17.40660       26.44100       28.52600
C         15.54610       25.57020       27.89360
H         14.92620       26.37190       28.29760
C         14.90500       24.47020       27.26930
C         13.49180       24.35190       27.31910
H         12.90690       25.14180       27.79020
N         53.05210       28.15160       27.48390
C         53.88590       27.34310       27.36920
C         54.93150       26.38170       27.24400
C         55.38260       25.65240       28.40580
C         54.77880       25.88080       29.67510
H         53.97930       26.61880       29.75450
C         55.25080       25.23720       30.78620
H         54.86560       25.48230       31.77710
C         56.22550       24.20800       30.67280
C         56.72880       23.57430       31.84690
H         56.35500       23.90380       32.81640
C         57.71790       22.63380       31.75470
H         58.19610       22.22690       32.64700
C         58.10670       22.12240       30.48270
C         59.15470       21.16230       30.38040
H         59.67090       20.85630       31.29150
C         59.54420       20.67950       29.15780
H         60.40970       20.02350       29.06480
C         58.76290       20.95940       28.00070
C         59.11750       20.40210       26.71550
C         60.36350       19.72120       26.56440
N         61.39960       19.19640       26.44010
C         58.29670       20.56710       25.62220
H         58.59410       20.16960       24.65180
C         57.03020       21.19470       25.75760
C         56.12060       21.21600       24.67000
H         56.44120       20.79630       23.71530
C         54.84630       21.72530       24.82410
H         54.15140       21.73220       23.98560
C         54.43560       22.19480       26.08860
H         53.41240       22.54160       26.23330
C         55.31590       22.21210       27.15640
H         54.97000       22.56130       28.12600
C         56.65130       21.76620       27.01510
C         57.61220       21.78970       28.09940
C         57.45620       22.58370       29.29780
C         56.71140       23.82590       29.38500
C         56.44590       24.71620       28.27430
C         57.23360       24.75240       27.05510
C         58.55510       24.25530       26.96210
H         59.04780       23.87830       27.85340
C         59.24430       24.26300       25.76070
H         60.26300       23.87680       25.72660
C         58.64580       24.77360       24.58940
H         59.18750       24.75310       23.64370
C         57.39510       25.35400       24.66640
H         56.94400       25.82730       23.79300
C         56.69170       25.39780       25.89690
C         55.51160       26.17750       26.01120
H         55.12490       26.69180       25.13140
N         10.35910       56.66800       25.31330
C         11.48770       56.84100       25.07170
C         12.87640       57.02840       24.80780
C         13.62270       56.00460       24.11490
C         12.97430       54.81260       23.68290
H         11.91110       54.68440       23.89150
C         13.69590       53.81600       23.08490
H         13.23050       52.85890       22.84530
C         15.05740       54.01690       22.72690
C         15.80040       52.95290       22.13590
H         15.30260       51.99620       21.97790
C         17.12950       53.11160       21.85350
H         17.73920       52.27330       21.51320
C         17.73480       54.39840       21.94570
C         19.12470       54.56310       21.67800
H         19.71630       53.67910       21.43540
C         19.71580       55.79580       21.78150
H         20.79480       55.90980       21.67710
C         18.91070       56.95990       21.93790
C         19.50970       58.27420       21.97850
C         20.93050       58.39700       22.05270
N         22.09090       58.48870       22.14860
C         18.72780       59.40740       22.00330
H         19.19400       60.39060       22.06780
C         17.31640       59.31430       21.87870
C         16.53020       60.48610       21.73880
H         17.02740       61.45570       21.79200
C         15.17140       60.40210       21.50680
H         14.57550       61.30660       21.39410
C         14.56830       59.13480       21.37100
H         13.50850       59.06080       21.12740
C         15.31000       57.97780       21.53410
H         14.82640       57.01280       21.40600
C         16.68950       58.02700       21.84540
C         17.49760       56.84140       22.04830
C         16.95160       55.53120       22.32410
C         15.68160       55.27690       22.97820
C         15.01410       56.19000       23.88220
C         15.68750       57.24990       24.61130
C         17.08030       57.26570       24.86030
H         17.68750       56.41970       24.55220
C         17.68290       58.32820       25.51320
H         18.75770       58.30470       25.69300
C         16.91960       59.42980       25.95460
H         17.40660       60.27210       26.44580
C         15.54610       59.40130       25.81340
H         14.92620       60.20300       26.21750
C         14.90500       58.30130       25.18920
C         13.49180       58.18310       25.23900
H         12.90690       58.97300       25.71010
N         51.12240       56.66800       25.31330
C         52.25100       56.84100       25.07170
C         53.63970       57.02840       24.80780
C         54.38590       56.00460       24.11490
C         53.73760       54.81260       23.68290
H         52.67440       54.68440       23.89150
C         54.45920       53.81600       23.08490
H         53.99380       52.85890       22.84530
C         55.82070       54.01690       22.72690
C         56.56370       52.95290       22.13590
H         56.06590       51.99620       21.97790
C         57.89280       53.11160       21.85350
H         58.50250       52.27330       21.51320
C         58.49810       54.39840       21.94570
C         59.88800       54.56310       21.67800
H         60.47960       53.67910       21.43540
C         60.47910       55.79580       21.78150
H         61.55800       55.90980       21.67710
C         59.67400       56.95990       21.93790
C         60.27300       58.27420       21.97850
C         61.69380       58.39700       22.05270
N         62.85420       58.48870       22.14860
C         59.49110       59.40740       22.00330
H         59.95730       60.39060       22.06780
C         58.07970       59.31430       21.87870
C         57.29350       60.48610       21.73880
H         57.79070       61.45570       21.79200
C         55.93470       60.40210       21.50680
H         55.33880       61.30660       21.39410
C         55.33160       59.13480       21.37100
H         54.27180       59.06080       21.12740
C         56.07330       57.97780       21.53410
H         55.58970       57.01280       21.40600
C         57.45280       58.02700       21.84540
C         58.26090       56.84140       22.04830
C         57.71490       55.53120       22.32410
C         56.44490       55.27690       22.97820
C         55.77740       56.19000       23.88220
C         56.45080       57.24990       24.61130
C         57.84360       57.26570       24.86030
H         58.45080       56.41970       24.55220
C         58.44610       58.32820       25.51320
H         59.52090       58.30470       25.69300
C         57.68290       59.42980       25.95460
H         58.16990       60.27210       26.44580
C         56.30940       59.40130       25.81340
H         55.68950       60.20300       26.21750
C         55.66830       58.30130       25.18920
C         54.25510       58.18310       25.23900
H         53.67020       58.97300       25.71010
