    288
sdfqsdqs
Si            6.203494035     6.647650316     2.535207912
Si            3.884328137    13.521023703     9.240370312
Si           14.082785919    16.617188286    10.624305607
Si           16.413620196     3.574181372     3.919129753
Si           14.086556285    13.535695104    10.629229542
Si           16.416073964     6.661307042     3.919425728
Si            6.202247652     3.570696457     2.529315333
Si            3.884091252    16.607075417     9.231652524
Si            8.706303092     7.642800761     4.147500804
Si            1.394562864    12.553894239    10.889417826
Si           11.562431369    17.630611396     9.020474888
Si           18.901475041     2.599973982     2.272490393
Si           11.584972845    12.532921449     9.014340148
Si           18.904227167     7.630307656     2.269194316
Si            8.708900900     2.584800312     4.144379621
Si            1.397360040    17.580606253    10.876246972
Si            7.853096696     6.704452030     7.015208894
Si            2.250119312    13.487473796     0.308916411
Si           12.431937925    16.667930028     6.156035968
Si           18.053030049     3.534720941    12.852816915
Si           12.427318194    13.490995233     6.150856418
Si           18.048832939     6.694199998    12.851875179
Si            7.815400179     3.547225681     6.980956600
Si            2.251498827    16.646694914     0.299687395
Si            4.730190573     6.718735927     7.092041122
Si            5.347488000    13.458626176     0.367815289
Si           15.547478219    16.671779825     6.073216988
Si           14.955270813     3.505188354    12.793702783
Si           15.543896560    13.468112745     6.071979277
Si           14.950972079     6.718847289    12.797563901
Si            4.710083804     3.527113240     7.069587438
Si            5.348519315    16.671748152     0.366981180
Si            3.733050047     7.546983159     4.316071600
Si            6.344034041    12.641479437    11.040781755
Si           16.562622864    17.497267923     8.844612362
Si           13.952931660     2.692127566     2.119754220
Si           16.557287660    12.643050494     8.845500285
Si           13.950181275     7.542144777     2.122350721
Si            3.725330023     2.679370867     4.307461440
Si            6.331834397    17.479594328    11.036934090
Si            1.441869869     6.685159693     2.443496250
Si            8.641497211    13.492329163     9.160537981
Si           18.855885241    16.636287611    10.716151802
Si           11.655858698     3.548357663     3.994078509
Si           18.855143925    13.498106641    10.715559853
Si           11.652352552     6.681044706     3.997240052
Si            1.437009924     3.547994949     2.431899441
Si            8.630868300    16.621493490     9.159663512
Si            6.042372710    11.527012615     2.681244304
Si            4.073569568     8.689362650     9.397196311
Si           14.251812403     1.575108238    10.479345485
Si           16.230068190    18.637210237     3.770739020
Si           14.258270939     8.655755265    10.486273973
Si           16.227806614    11.497226349     3.776039650
Si            6.043671551    18.605749929     2.676777783
Si            4.064559829     1.541737429     9.381940183
Si            8.586165280    10.792136914     4.262177378
Si            1.531236998     9.396772908    11.000583069
Si           11.680884861     0.903046502     8.896838366
Si           18.769387011    19.346869282     2.164701948
Si           11.716115724     9.382331779     8.894887626
Si           18.767691181    10.787786209     2.168737961
Si            8.584856814    19.338321161     4.264572079
Si            1.526895197     0.832695570    10.986524291
Si            7.662483158    11.284643349     7.208291741
Si            2.452567995     8.878065185     0.490523528
Si           12.645012926     1.338593253     5.944145302
Si           17.848394942    18.828686163    12.673658312
Si           12.638510883     8.893089466     5.951141058
Si           17.849525642    11.307370021    12.675905026
Si            7.679802309    18.843438549     7.219417682
Si            2.440578302     1.353067985     0.479707014
Si            4.521850915    11.119343639     7.327488649
Si            5.599901711     9.074847571     0.636976975
Si           15.785503693     1.170589543     5.831930696
Si           14.700181499    19.031608162    12.528496389
Si           15.779711446     9.058726824     5.839316600
Si           14.699600188    11.109930970    12.527568106
Si            4.532392546    19.012477568     7.328914706
Si            5.588727515     1.149627806     0.631528358
Si            3.603921074    10.679323469     4.403545449
Si            6.488484963     9.510870579    11.156682586
Si           16.691897618     0.727660831     8.757891903
Si           13.814435189    19.466511172     2.011602533
Si           16.695600793     9.508639677     8.762344970
Si           13.814975407    10.675977620     2.012113762
Si            3.605463317    19.447046635     4.400007211
Si            6.469756955     0.703219764    11.150103885
Si            1.397315781    11.299812719     2.366865823
Si            8.673836142     8.867477093     9.115859321
Si           18.900276111     1.345676216    10.795889959
Si           11.626697520    18.819927046     4.047569130
Si           18.904900471     8.886398789    10.799347477
Si           11.628786743    11.321978466     4.054389992
Si            1.395065355    18.835201946     2.359318479
Si            8.641150524     1.384896973     9.101491116
O            14.207474296    15.077375660    11.144574548
O            16.272024048     5.117774190     4.420160367
O             6.059164917     5.110309686     2.012584630
O             4.021787432    15.062785735     8.732666823
O             7.691537202     6.814406446     3.185315381
O             2.385248921    13.322155651     9.853790426
O            12.602355765    16.820479124     9.970902060
O            17.912434562     3.370936292     3.307324044
O            12.599081877    13.352756067     9.983736581
O            17.913501576     6.857886512     3.301471826
O             7.694075886     3.398975606     3.169884359
O             2.378040268    16.823817964     9.821852112
O             8.705061086     7.105323080     5.688235192
O             1.419055315    13.197102461    12.389442299
O            11.584996600    17.097957658     7.477372706
O            18.880554537     3.246962645     0.774066872
O            11.579925139    13.091119103     7.480951304
O            18.883266557     6.988015096     0.768672068
O             8.705793560     3.137896672     5.681575771
O             1.433653589    16.923844864    12.370244332
O            12.301467200    15.080088545     5.863061808
O            18.087095733     5.114347844    12.482405125
O             7.993842091     5.120173885     7.320654334
O             2.217022201    15.068142254     0.676207018
O             6.286107610     7.094687395     6.759379504
O             3.799430075    13.000787348     0.095747674
O            13.996908722    17.075711582     6.399595880
O            16.503795430     3.049126809    13.065972198
O            13.990025888    13.071780283     6.391241334
O            16.498926828     7.175292563    13.071972404
O             6.254711032     3.184077719     6.662192318
O             3.801667338    17.134377864     0.098303816
O            15.762573183    15.069659961     6.049458327
O            14.789331645     5.111906029    12.819022035
O             4.463758986     5.124173544     7.131580593
O             5.509435574    15.065308888     0.344231522
O             5.103009745     6.906910848     3.710494804
O             4.958585445    13.254322434    10.439214065
O            15.190355486    16.865932795     9.453713942
O            15.337723800     3.305567809     2.722277100
O            15.190368187    13.286466428     9.454628772
O            15.336955547     6.936566615     2.727429743
O             5.101963737     3.305152177     3.702718753
O             4.940360663    16.866670196    10.448631428
O             3.794337540     7.398871316     5.939369354
O             6.287958221    12.804277819    12.662196036
O            16.497564164    17.338191792     7.222296705
O            14.015575717     2.849514809     0.497963245
O            16.489447389    12.798228406     7.222888653
O            14.010033009     7.374489581     0.501824363
O             3.755930560     2.849593511     5.930476673
O             6.286929603    17.323281862    12.659451547
O            19.135295747    15.067051449    11.081182242
O            11.372707573     5.114036730     4.373665501
O             1.158087090     5.118325351     2.072062003
O             8.920919416    15.057824800     8.779955439
O             2.411859952     6.771634383     3.758146661
O             7.648727391    13.425161831    10.458264045
O            17.882901523    16.721629308     9.403761559
O            12.645622481     3.479437446     2.693500329
O            17.883867275    13.410258436     9.401891539
O            12.646755028     6.752750143     2.700993859
O             2.412832946     3.459349521     3.739903884
O             7.630268794    16.688543577    10.451120303
O             0.038031498     7.459755124     2.769982770
O            10.043803688    12.730762449     9.525487701
O            20.259737047    17.409654148    10.387660730
O            10.250984975     2.786862349     3.638505792
O            20.260615351    12.726357530    10.389476936
O            10.246797711     7.438351304     3.637631322
O             0.036114185     2.773413369     2.769081393
O            10.031568751    17.377154839     9.534541823
O             5.821069717    12.884055844     1.812223507
O             4.326791941     7.332231691     8.540323912
O            14.487391464     2.930287358    11.348204841
O            15.971062045    17.279272559     4.627059831
O            14.478655527     7.298274187    11.354770088
O            15.969055144    12.859035516     4.626615869
O             5.825504485    17.247326187     1.809640459
O             4.344819435     2.890201227     8.518394910
O             8.241245771     9.203007353     4.112320227
O             1.864100226    10.995317363    10.949446788
O            11.948256072    19.208503188     9.086208081
O            18.432972256     1.040712162     2.214277637
O            12.053833805    10.973930515     9.034627839
O            18.433648201     9.188983942     2.210308891
O             8.243216328     1.024638497     4.129432921
O             1.866736184    19.139468998    10.944374866
O             7.505444122    11.629611033     3.383295256
O             2.590745471     8.606135909    10.055873581
O            12.789483485     1.692853228     9.783819419
O            17.711681548    18.551467111     3.108187179
O            12.800123266     8.551266826     9.774967098
O            17.715647998    11.573644785     3.126725930
O             7.507162994    18.507371686     3.376756916
O             2.580845633     1.632835234    10.041074868
O             8.537166571    11.225145190     5.835294040
O             1.608770178     8.881269370    12.546846794
O            11.772162503     1.291044599     7.315219170
O            18.691988791    18.832548077     0.617711741
O            11.760908549     8.945242955     7.322806874
O            18.681787061    11.314515537     0.626617875
O             8.531694831    18.891327137     5.832643725
O             1.603150741     1.348828186    12.532599669
O             7.873924875    12.738564629     7.922908146
O             2.243198076     7.431604149     1.222158453
O            12.432834915     2.789929904     5.222748396
O            18.059995446    17.382688707    11.940987477
O            12.419172429     7.443846472     5.229434723
O            18.057897175    12.752099795    11.939843940
O             7.867043216    17.378548889     7.920311644
O             2.230267451     2.802768458     1.204709425
O             4.222044057    10.014424745     8.471900044
O             5.921971830    10.195445527     1.760293477
O            16.091754597     0.059905471     4.694609230
O            14.375005207     0.243219228    11.400942073
O            16.067491511    10.175030344     4.703098310
O            14.366586937     9.988954525    11.407292067
O             4.191529737     0.207482614     8.467083736
O             5.913833103     0.033783003     1.758544538
O             6.087070778    11.035312198     6.866925788
O             4.031246018     9.151464561     0.193486448
O            14.219400869     1.087502484     6.286210830
O            16.269845598    19.103897805    12.969659482
O            14.214673748     9.124007972     6.301372785
O            16.270403194    11.025094324    12.961479830
O             6.105935132    19.140506258     6.904729774
O             4.019614038     1.072481367     0.191078294
O             4.168307086    12.585894597     7.939644145
O             5.963517249     7.609787856     1.246172729
O            16.135859704     2.638038054     5.220286428
O            14.335323231    17.566051986    11.920874680
O            16.145832437     7.597271905     5.222533142
O            14.341680158    12.576961238    11.918412713
O             4.201779218    17.537346538     7.933886100
O             5.956649713     2.615861148     1.235019880
O             4.917212752    11.473014154     3.858656830
O             5.161533586     8.740039076    10.609601067
O            15.370804316     1.511490906     9.296295994
O            15.141149457    18.696068782     2.559437441
O            15.389858309     8.709534129     9.315386334
O            15.149767145    11.436916967     2.554796027
O             4.922271116    18.657782966     3.857916894
O             5.149271416     1.480728782    10.597318135
O             3.653533526     9.122374929     3.899756892
O             6.452531991    11.064476265    10.644848911
O            16.649804237    19.073353993     9.255572626
O            13.843504552     1.116279307     2.522776993
O            16.634110410    11.067121493     9.259864253
O            13.834723146     9.119426812     2.516279012
O             3.644984020     1.101174211     3.903537291
O             6.433361975    19.055781092    10.632633246
O             3.578829608    10.810333701     6.029856758
O             6.521234270     9.376532629    12.780975889
O            16.725677360     0.863531573     7.132212902
O            13.782837093    19.337272293     0.386878722
O            16.721446888     9.371558452     7.136908130
O            13.782185462    10.814654772     0.387860819
O             3.593444548    19.307632894     6.025457504
O             6.504193386     0.836718368    12.773428546
O             1.871540915    10.067512166     1.423353685
O             8.194401669    10.110472693     8.188329793
O            18.427443420     0.114183734    11.741056862
O            12.114324147     0.154086147     4.975677153
O            18.445695851    10.118061511    11.751765749
O            12.125041311    10.087223105     4.984650554
O             1.853964791     0.170302664     1.418106869
O             8.283410439     0.078128735     8.203720455
O             1.584320882    12.703943563     1.565421332
O             8.434261087     7.468699379     8.322621388
O            18.724467832     2.749628033    11.600186566
O            11.847011834    17.416453978     4.839690432
O            18.707201963     7.479780650    11.592908290
O            11.834354119    12.729355238     4.844950702
O             1.576613533    17.436505701     1.547407262
O             8.280326183     2.752123616     8.310647884
O             2.259405388    11.339285479     3.753572513
O             7.828921399     8.836785079    10.512830936
O            18.029961248     1.392728215     9.415129661
O            12.476017473    18.785908928     2.653005669
O            18.045077755     8.859923817     9.411860491
O            12.483191771    11.361467757     2.663082247
O             2.264828372    18.787154577     3.741491382
O             7.816318653     1.366684074    10.509333059
O            20.248172026    11.096467750     2.763067734
O            10.244615324     9.041266658     9.493387947
O             0.046444955     1.136041357    10.388979161
O            10.058121355    19.006431214     3.666502266
O             0.054738758     9.080169845    10.401073745
O            10.062276046    11.123766651     3.669717623
O            20.247181825    19.033809782     2.764897394
O            10.227228253     1.390317141     9.441525184

