12 
 i = 0
  U     0.200000     0.000000     0.000000
  U     2.734000     2.734000     0.000000
  U     0.000000     2.734000     2.734000
  U     2.734000     0.000000     2.734000
  O     1.367000     1.367000     1.367000
  O     4.101000     1.367000     1.367000
  O     4.101000     4.101000     1.367000
  O     4.101000     1.367000     4.101000
  O     4.101000     4.101000     4.101000
  O     1.367000     4.101000     1.367000
  O     1.367000     1.367000     4.101000
  O     1.367000     4.101000     4.101000

