288
Hayward-Reimers 3x2x2-C2 xl=13.52118 yl=15.61292 zl=14.72000 x-shift=  .00000
O         1.126770         1.301080         1.380000 H2O
H         1.090810         1.321830         0.423700 H2O
H         0.333970         1.758800         1.659630 H2O
O         3.380300         2.602150         2.300000 H2O
H         2.623450         2.123670         1.961660 H2O
H         4.137140         2.123670         1.961660 H2O
O         1.126770         1.301080         5.980000 H2O
H         1.162720         0.406390         5.641660 H2O
H         1.919560         1.717290         5.641660 H2O
O         3.380300         2.602150         5.060000 H2O
H         3.416250         2.581400         4.103700 H2O
H         4.173090         2.144430         5.339630 H2O
O         3.380300         5.204310         1.380000 H2O
H         2.587500         5.620520         1.718340 H2O
H         3.344350         4.309620         1.718340 H2O
O         1.126770         6.505380         2.300000 H2O
H         0.333970         6.089170         1.961660 H2O
H         1.090810         7.400070         1.961660 H2O
O         3.380300         5.204310         5.980000 H2O
H         3.380300         5.162790         6.936300 H2O
H         3.380300         4.288860         5.700370 H2O
O         1.126770         6.505380         5.060000 H2O
H         1.162720         6.484630         4.103700 H2O
H         1.919560         6.047660         5.339630 H2O
O         1.126770         9.107540         1.380000 H2O
H         1.162720         9.128290         0.423700 H2O
H         1.919560         9.565260         1.659630 H2O
O         3.380300        10.408610         2.300000 H2O
H         3.380300        10.450120         3.256300 H2O
H         3.380300        11.324060         2.020370 H2O
O         1.126770         9.107540         5.980000 H2O
H         0.333970         9.523750         5.641660 H2O
H         1.090810         8.212850         5.641660 H2O
O         3.380300        10.408610         5.060000 H2O
H         2.623450         9.930130         5.398340 H2O
H         4.137140         9.930130         5.398340 H2O
O         3.380300        13.010760         1.380000 H2O
H         3.344350        13.031520         0.423700 H2O
H         2.587500        13.468490         1.659630 H2O
O         1.126770        14.311840         2.300000 H2O
H         1.126770        14.353350         3.256300 H2O
H         1.126770        15.227290         2.020370 H2O
O         3.380300        13.010760         5.980000 H2O
H         3.380300        12.969250         6.936300 H2O
H         3.380300        12.095320         5.700370 H2O
O         1.126770        14.311840         5.060000 H2O
H         0.369920        13.833360         5.398340 H2O
H         1.883610        13.833360         5.398340 H2O
O         5.633830         1.301080         1.380000 H2O
H         5.669780         0.406390         1.718340 H2O
H         6.426630         1.717290         1.718340 H2O
O         7.887360         2.602150         2.300000 H2O
H         7.923310         2.581400         3.256300 H2O
H         8.680160         2.144430         2.020370 H2O
O         5.633830         1.301080         5.980000 H2O
H         5.669780         1.321830         6.936300 H2O
H         6.426630         1.758800         5.700370 H2O
O         7.887360         2.602150         5.060000 H2O
H         8.680160         2.185940         5.398340 H2O
H         7.923310         3.496840         5.398340 H2O
O         7.887360         5.204310         1.380000 H2O
H         7.094560         5.620520         1.718340 H2O
H         7.851410         4.309620         1.718340 H2O
O         5.633830         6.505380         2.300000 H2O
H         4.841030         6.089170         1.961660 H2O
H         5.597880         7.400070         1.961660 H2O
O         7.887360         5.204310         5.980000 H2O
H         7.130510         5.682780         5.641660 H2O
H         8.644210         5.682780         5.641660 H2O
O         5.633830         6.505380         5.060000 H2O
H         5.597880         6.484630         4.103700 H2O
H         4.841030         6.047660         5.339630 H2O
O         5.633830         9.107540         1.380000 H2O
H         4.876980         9.586010         1.718340 H2O
H         6.390670         9.586010         1.718340 H2O
O         7.887360        10.408610         2.300000 H2O
H         8.680160         9.992400         1.961660 H2O
H         7.923310        11.303300         1.961660 H2O
O         5.633830         9.107540         5.980000 H2O
H         5.669780         8.212850         5.641660 H2O
H         6.426630         9.523750         5.641660 H2O
O         7.887360        10.408610         5.060000 H2O
H         7.887360        10.450120         4.103700 H2O
H         7.887360        11.324060         5.339630 H2O
O         7.887360        13.010760         1.380000 H2O
H         7.130510        13.489240         1.718340 H2O
H         8.644210        13.489240         1.718340 H2O
O         5.633830        14.311840         2.300000 H2O
H         5.597880        14.291090         3.256300 H2O
H         4.841030        13.854120         2.020370 H2O
O         7.887360        13.010760         5.980000 H2O
H         7.851410        13.031520         6.936300 H2O
H         7.094560        13.468490         5.700370 H2O
O         5.633830        14.311840         5.060000 H2O
H         4.841030        13.895630         5.398340 H2O
H         5.597880        15.206530         5.398340 H2O
O        10.140890         1.301080         1.380000 H2O
H        10.140890         1.259560         0.423700 H2O
H        10.140890         0.385630         1.659630 H2O
O        12.394420         2.602150         2.300000 H2O
H        12.358470         2.581400         3.256300 H2O
H        11.601620         2.144430         2.020370 H2O
O        10.140890         1.301080         5.980000 H2O
H        10.176840         1.321830         6.936300 H2O
H        10.933690         1.758800         5.700370 H2O
O        12.394420         2.602150         5.060000 H2O
H        13.187220         2.185940         5.398340 H2O
H        12.430370         3.496840         5.398340 H2O
O        12.394420         5.204310         1.380000 H2O
H        12.394420         5.162790         0.423700 H2O
H        12.394420         4.288860         1.659630 H2O
O        10.140890         6.505380         2.300000 H2O
H         9.384040         6.026900         1.961660 H2O
H        10.897740         6.026900         1.961660 H2O
O        12.394420         5.204310         5.980000 H2O
H        11.637570         5.682780         5.641660 H2O
H        13.151270         5.682780         5.641660 H2O
O        10.140890         6.505380         5.060000 H2O
H        10.140890         6.546890         4.103700 H2O
H        10.140890         7.420830         5.339630 H2O
O        10.140890         9.107540         1.380000 H2O
H        10.176840         8.212850         1.718340 H2O
H        10.933690         9.523750         1.718340 H2O
O        12.394420        10.408610         2.300000 H2O
H        13.187220         9.992400         1.961660 H2O
H        12.430370        11.303300         1.961660 H2O
O        10.140890         9.107540         5.980000 H2O
H        10.104940         9.128290         6.936300 H2O
H         9.348090         9.565260         5.700370 H2O
O        12.394420        10.408610         5.060000 H2O
H        12.358470        10.387860         4.103700 H2O
H        11.601620         9.950890         5.339630 H2O
O        12.394420        13.010760         1.380000 H2O
H        12.430370        13.031520         0.423700 H2O
H        13.187220        13.468490         1.659630 H2O
O        10.140890        14.311840         2.300000 H2O
H        10.176840        14.291090         3.256300 H2O
H        10.933690        13.854120         2.020370 H2O
O        12.394420        13.010760         5.980000 H2O
H        11.601620        13.426980         5.641660 H2O
H        12.358470        12.116080         5.641660 H2O
O        10.140890        14.311840         5.060000 H2O
H         9.348090        13.895630         5.398340 H2O
H        10.104940        15.206530         5.398340 H2O
O         1.126770         1.301080         8.740000 H2O
H         1.162720         1.321830         7.783700 H2O
H         1.919560         1.758800         9.019630 H2O
O         3.380300         2.602150         9.660000 H2O
H         3.416250         2.581400        10.616300 H2O
H         4.173090         2.144430         9.380370 H2O
O         1.126770         1.301080        13.340000 H2O
H         0.333970         1.717290        13.001660 H2O
H         1.090810         0.406390        13.001660 H2O
O         3.380300         2.602150        12.420000 H2O
H         2.587500         2.185940        12.758340 H2O
H         3.344350         3.496840        12.758340 H2O
O         3.380300         5.204310         8.740000 H2O
H         3.416250         4.309620         9.078340 H2O
H         4.173090         5.620520         9.078340 H2O
O         1.126770         6.505380         9.660000 H2O
H         0.369920         6.026900         9.321660 H2O
H         1.883610         6.026900         9.321660 H2O
O         3.380300         5.204310        13.340000 H2O
H         3.344350         5.225060        14.296300 H2O
H         2.587500         5.662030        13.060370 H2O
O         1.126770         6.505380        12.420000 H2O
H         1.126770         6.546890        11.463700 H2O
H         1.126770         7.420830        12.699630 H2O
O         1.126770         9.107540         8.740000 H2O
H         1.126770         9.066020         7.783700 H2O
H         1.126770         8.192090         9.019630 H2O
O         3.380300        10.408610         9.660000 H2O
H         2.623450         9.930130         9.321660 H2O
H         4.137140         9.930130         9.321660 H2O
O         1.126770         9.107540        13.340000 H2O
H         0.369920         9.586010        13.001660 H2O
H         1.883610         9.586010        13.001660 H2O
O         3.380300        10.408610        12.420000 H2O
H         3.416250        10.387860        11.463700 H2O
H         4.173090         9.950890        12.699630 H2O
O         3.380300        13.010760         8.740000 H2O
H         2.587500        13.426980         9.078340 H2O
H         3.344350        12.116080         9.078340 H2O
O         1.126770        14.311840         9.660000 H2O
H         0.333970        13.895630         9.321660 H2O
H         1.090810        15.206530         9.321660 H2O
O         3.380300        13.010760        13.340000 H2O
H         3.416250        12.116080        13.001660 H2O
H         4.173090        13.426980        13.001660 H2O
O         1.126770        14.311840        12.420000 H2O
H         1.162720        14.291090        11.463700 H2O
H         1.919560        13.854120        12.699630 H2O
O         5.633830         1.301080         8.740000 H2O
H         5.669780         0.406390         9.078340 H2O
H         6.426630         1.717290         9.078340 H2O
O         7.887360         2.602150         9.660000 H2O
H         7.887360         2.643670        10.616300 H2O
H         7.887360         3.517600         9.380370 H2O
O         5.633830         1.301080        13.340000 H2O
H         5.597880         1.321830        14.296300 H2O
H         4.841030         1.758800        13.060370 H2O
O         7.887360         2.602150        12.420000 H2O
H         7.094560         2.185940        12.758340 H2O
H         7.851410         3.496840        12.758340 H2O
O         7.887360         5.204310         8.740000 H2O
H         7.923310         5.225060         7.783700 H2O
H         8.680160         5.662030         9.019630 H2O
O         5.633830         6.505380         9.660000 H2O
H         5.669780         6.484630        10.616300 H2O
H         6.426630         6.047660         9.380370 H2O
O         7.887360         5.204310        13.340000 H2O
H         7.923310         5.225060        14.296300 H2O
H         8.680160         5.662030        13.060370 H2O
O         5.633830         6.505380        12.420000 H2O
H         4.876980         6.026900        12.758340 H2O
H         6.390670         6.026900        12.758340 H2O
O         5.633830         9.107540         8.740000 H2O
H         5.633830         9.066020         7.783700 H2O
H         5.633830         8.192090         9.019630 H2O
O         7.887360        10.408610         9.660000 H2O
H         7.851410        10.387860        10.616300 H2O
H         7.094560         9.950890         9.380370 H2O
O         5.633830         9.107540        13.340000 H2O
H         5.633830         9.066020        14.296300 H2O
H         5.633830         8.192090        13.060370 H2O
O         7.887360        10.408610        12.420000 H2O
H         7.130510         9.930130        12.758340 H2O
H         8.644210         9.930130        12.758340 H2O
O         7.887360        13.010760         8.740000 H2O
H         7.094560        13.426980         9.078340 H2O
H         7.851410        12.116080         9.078340 H2O
O         5.633830        14.311840         9.660000 H2O
H         5.597880        14.291090        10.616300 H2O
H         4.841030        13.854120         9.380370 H2O
O         7.887360        13.010760        13.340000 H2O
H         7.887360        12.969250        14.296300 H2O
H         7.887360        12.095320        13.060370 H2O
O         5.633830        14.311840        12.420000 H2O
H         6.426630        13.895630        12.758340 H2O
H         5.669780        15.206530        12.758340 H2O
O        10.140890         1.301080         8.740000 H2O
H         9.384040         1.779560         9.078340 H2O
H        10.897740         1.779560         9.078340 H2O
O        12.394420         2.602150         9.660000 H2O
H        13.187220         2.185940         9.321660 H2O
H        12.430370         3.496840         9.321660 H2O
O        10.140890         1.301080        13.340000 H2O
H         9.348090         1.717290        13.001660 H2O
H        10.104940         0.406390        13.001660 H2O
O        12.394420         2.602150        12.420000 H2O
H        12.358470         2.581400        11.463700 H2O
H        11.601620         2.144430        12.699630 H2O
O        12.394420         5.204310         8.740000 H2O
H        12.358470         5.225060         7.783700 H2O
H        11.601620         5.662030         9.019630 H2O
O        10.140890         6.505380         9.660000 H2O
H        10.140890         6.546890        10.616300 H2O
H        10.140890         7.420830         9.380370 H2O
O        12.394420         5.204310        13.340000 H2O
H        12.430370         4.309620        13.001660 H2O
H        13.187220         5.620520        13.001660 H2O
O        10.140890         6.505380        12.420000 H2O
H        10.933690         6.089170        12.758340 H2O
H        10.176840         7.400070        12.758340 H2O
O        10.140890         9.107540         8.740000 H2O
H         9.384040         9.586010         9.078340 H2O
H        10.897740         9.586010         9.078340 H2O
O        12.394420        10.408610         9.660000 H2O
H        13.187220         9.992400         9.321660 H2O
H        12.430370        11.303300         9.321660 H2O
O        10.140890         9.107540        13.340000 H2O
H        10.176840         9.128290        14.296300 H2O
H        10.933690         9.565260        13.060370 H2O
O        12.394420        10.408610        12.420000 H2O
H        12.394420        10.450120        11.463700 H2O
H        12.394420        11.324060        12.699630 H2O
O        12.394420        13.010760         8.740000 H2O
H        12.358470        13.031520         7.783700 H2O
H        11.601620        13.468490         9.019630 H2O
O        10.140890        14.311840         9.660000 H2O
H         9.348090        13.895630         9.321660 H2O
H        10.104940        15.206530         9.321660 H2O
O        12.394420        13.010760        13.340000 H2O
H        11.637570        13.489240        13.001660 H2O
H        13.151270        13.489240        13.001660 H2O
O        10.140890        14.311840        12.420000 H2O
H        10.104940        14.291090        11.463700 H2O
H         9.348090        13.854120        12.699630 H2O
