12
 generated by VMD
 Au        0.764765       -1.739629        1.919964
 Au       -0.878904        0.463287        1.605313
 Au       -1.926254       -1.988347        2.930859
 Au       -2.899362        0.732093        3.409711
 Au        2.805809       -3.173458        3.061007
 Au       -0.115263       -3.719873        3.781466
 Au       -0.323624        0.330700        4.395498
 Au        2.091645       -4.432483        5.439480
 Au       -3.602004       -1.303812        4.991072
 Au       -0.991961       -2.020853        5.801270
 Au        1.660723       -1.348382        4.971195
 Au       -0.456571       -4.697244        6.352169
