12
 generated by VMD
 Au        9.622843        7.036758       11.000575
 Au       12.377407        7.036262       10.999972
 Au        8.198776        9.383165       10.999756
 Au       11.000869        9.425345       10.999733
 Au       13.802661        9.382933       11.000135
 Au        6.878506       11.789304       10.999845
 Au        9.637169       11.786426       11.000320
 Au       12.363111       11.786520       10.999896
 Au       15.120695       11.789773       11.000219
 Au        8.255153       14.174428       10.999699
 Au       10.999887       14.234249       11.000220
 Au       13.742911       14.175159       10.999673
