            8
 i = 0
C       0.01234       0.01291       0.01414
C       1.35715       1.35715       1.35715
C       0.00000       2.71429       2.71429
C       1.35715       4.07144       4.07144
C       2.71429       0.00000       2.71429
C       4.07144       1.35715       4.07144
C       2.71429       2.71429       0.00000
C       4.07144       4.07144       1.35715
