15
1st 3 intermolecular distances r = 2.0 <= r_inner = 2.5, last 2 far away. Should be core_list: 3, core: 3, extended: 3, buffer: 0
O 5.000 1 2
H 5.000 1 2.947
H 5.000 1.896 1.683
O 7.000 1 2
H 7.000 1 2.947
H 7.000 1.896 1.683
O 9.000 1 2
H 9.000 1 2.947
H 9.000 1.896 1.683
O 13.000 1 2
H 13.000 1 2.947
H 13.000 1.896 1.683
O 15.000 1 2
H 15.000 1 2.947
H 15.000 1.896 1.683
15
all intermolecular distances r = 2.0 <= r_inner = 2.5. Should be core_list: 3, core: 3, extended: 3, buffer: 3
O 5.000 1 2
H 5.000 1 2.947
H 5.000 1.896 1.683
O 7.000 1 2
H 7.000 1 2.947
H 7.000 1.896 1.683
O 9.000 1 2
H 9.000 1 2.947
H 9.000 1.896 1.683
O 11.000 1 2
H 11.000 1 2.947
H 11.000 1.896 1.683
O 13.000 1 2
H 13.000 1 2.947
H 13.000 1.896 1.683
15
move molecule #4 to r_inner = 2.5 < r = 3.0 <= r_outer = 3.5.  Should be core_list: 3, core: 3, extended: 3, buffer: 3
O 5.100 1 2
H 5.100 1 2.947
H 5.100 1.896 1.683
O 7.100 1 2
H 7.100 1 2.947
H 7.100 1.896 1.683
O 9.100 1 2
H 9.100 1 2.947
H 9.100 1.896 1.683
O 12.100 1 2
H 12.100 1 2.947
H 12.100 1.896 1.683
O 14.100 1 2
H 14.100 1 2.947
H 14.100 1.896 1.683
15
move 1 atom in molecule #4 to r = 3.55 > r_outer = 3.5, rest are at r = 3.45 <= r_outer.  Should be core_list: 3, core: 3, extended: 3, buffer: 3
O 5.100 1 2
H 5.100 1 2.947
H 5.100 1.896 1.683
O 7.100 1 2
H 7.100 1 2.947
H 7.100 1.896 1.683
O 9.100 1 2
H 9.100 1 2.947
H 9.100 1.896 1.683
O 12.650 1 2
H 12.550 1 2.947
H 12.550 1.896 1.683
O 14.650 1 2
H 14.650 1 2.947
H 14.650 1.896 1.683
15
move rest of molecule #4 to r = 4.1 > r_outer = 3.5.  Should be core_list: 3, core: 3, extended: 3, buffer: 0
O 5.100 1 2
H 5.100 1 2.947
H 5.100 1.896 1.683
O 7.100 1 2
H 7.100 1 2.947
H 7.100 1.896 1.683
O 9.100 1 2
H 9.100 1 2.947
H 9.100 1.896 1.683
O 13.200 1 2
H 13.200 1 2.947
H 13.200 1.896 1.683
O 15.200 1 2
H 15.200 1 2.947
H 15.200 1.896 1.683
15
move one atom of molecule #4 to r_inner = 2.5 < r = 3.45 < r_outer = 3.5, rest at r = 3.55 <= r_outer = 3.5. Should be core_list: 3, core: 3, extended: 3, buffer: 0
O 5.100 1 2
H 5.100 1 2.947
H 5.100 1.896 1.683
O 7.100 1 2
H 7.100 1 2.947
H 7.100 1.896 1.683
O 9.100 1 2
H 9.100 1 2.947
H 9.100 1.896 1.683
O 12.550 1 2
H 12.650 1 2.947
H 12.650 1.896 1.683
O 14.650 1 2
H 14.650 1 2.947
H 14.650 1.896 1.683
15
move rest of molecule #4 to r_inner = 2.5 < r = 3.1 < r_outer = 3.5. Should be core_list: 3, core: 3, extended: 3, buffer: 0
O 5.100 1 2
H 5.100 1 2.947
H 5.100 1.896 1.683
O 7.100 1 2
H 7.100 1 2.947
H 7.100 1.896 1.683
O 9.100 1 2
H 9.100 1 2.947
H 9.100 1.896 1.683
O 12.200 1 2
H 12.200 1 2.947
H 12.200 1.896 1.683
O 14.200 1 2
H 14.200 1 2.947
H 14.200 1.896 1.683
15
move one atom of molecule #4 to r = 2.45 < r_inner = 2.5, rest at r_inner = 2.5 < r = 2.55 <= r_outer = 3.5.  Should be core_list: 3, core: 3, extended: 3, buffer: 3
O 5.100 1 2
H 5.100 1 2.947
H 5.100 1.896 1.683
O 7.100 1 2
H 7.100 1 2.947
H 7.100 1.896 1.683
O 9.100 1 2
H 9.100 1 2.947
H 9.100 1.896 1.683
O 11.550 1 2
H 11.650 1 2.947
H 11.650 1.896 1.683
O 13.650 1 2
H 13.650 1 2.947
H 13.650 1.896 1.683
15
move rest of molecule #4 to r = 2.1 < r_inner = 2.5. Should be core_list: 3, core: 3, extended: 3, buffer: 3
O 5.100 1 2
H 5.100 1 2.947
H 5.100 1.896 1.683
O 7.100 1 2
H 7.100 1 2.947
H 7.100 1.896 1.683
O 9.100 1 2
H 9.100 1 2.947
H 9.100 1.896 1.683
O 11.200 1 2
H 11.200 1 2.947
H 11.200 1.896 1.683
O 13.200 1 2
H 13.200 1 2.947
H 13.200 1.896 1.683
15
move rest of molecule #4 back out. Should be core_list: 3, core: 3, extended: 3, buffer: 0
O 5.000 1 2
H 5.000 1 2.947
H 5.000 1.896 1.683
O 7.000 1 2
H 7.000 1 2.947
H 7.000 1.896 1.683
O 9.000 1 2
H 9.000 1 2.947
H 9.000 1.896 1.683
O 13.000 1 2
H 13.000 1 2.947
H 13.000 1.896 1.683
O 15.000 1 2
H 15.000 1 2.947
H 15.000 1.896 1.683
15
same as prev config.  Should be core_list: 3, core: 3, extended: 3, buffer: 0
O 5.000 1 2
H 5.000 1 2.947
H 5.000 1.896 1.683
O 7.000 1 2
H 7.000 1 2.947
H 7.000 1.896 1.683
O 9.000 1 2
H 9.000 1 2.947
H 9.000 1.896 1.683
O 13.000 1 2
H 13.000 1 2.947
H 13.000 1.896 1.683
O 15.000 1 2
H 15.000 1 2.947
H 15.000 1.896 1.683
15
last molecule diffuses across pbc, joins QM core.  Should be core_list: 3, core: 6, extended: 3, buffer: 0
O 5.000 1 2
H 5.000 1 2.947
H 5.000 1.896 1.683
O 7.000 1 2
H 7.000 1 2.947
H 7.000 1.896 1.683
O 9.000 1 2
H 9.000 1 2.947
H 9.000 1.896 1.683
O 13.000 1 2
H 13.000 1 2.947
H 13.000 1.896 1.683
O 23.000 1 2
H 23.000 1 2.947
H 23.000 1.896 1.683
